*Heading
** Job name: analise Model name: Model-1
*Preprint, echo=NO, model=NO, history=NO, contact=NO
**
** PARTS
**
*Part, name=Part-1
*End Part
**  
*Part, name=Part-2
*End Part
**  
**
** ASSEMBLY
**
*Assembly, name=Assembly
**  
*Instance, name=Part-1-1, part=Part-1
*Node
      1,           0.,           0.
      2,          2.5,           0.
      3,           5.,           0.
      4,          7.5,           0.
      5,          10.,           0.
      6,         12.5,           0.
      7,          15.,           0.
      8,         17.5,           0.
      9,          20.,           0.
     10,         22.5,           0.
     11,          25.,           0.
     12,         27.5,           0.
     13,          30.,           0.
     14,         32.5,           0.
     15,          35.,           0.
     16,         37.5,           0.
     17,          40.,           0.
     18,           0.,          2.5
     19,          2.5,          2.5
     20,           5.,          2.5
** ... 269 like lines cut
*Element, type=CPS4
  1,   1,   2,  19,  18
  2,   2,   3,  20,  19
  3,   3,   4,  21,  20
  4,   4,   5,  22,  21
  5,   5,   6,  23,  22
  6,   6,   7,  24,  23
  7,   7,   8,  25,  24
  8,   8,   9,  26,  25
  9,   9,  10,  27,  26
 10,  10,  11,  28,  27
 11,  11,  12,  29,  28
 12,  12,  13,  30,  29
 13,  13,  14,  31,  30
 14,  14,  15,  32,  31
 15,  15,  16,  33,  32
 16,  16,  17,  34,  33
 17,  18,  19,  36,  35
 18,  19,  20,  37,  36
 19,  20,  21,  38,  37
 20,  21,  22,  39,  38
** ... 236 like lines cut
*Nset, nset=_PickedSet2, internal, generate
   1,  289,    1
*Elset, elset=_PickedSet2, internal, generate
   1,  256,    1
** Section: Section-1
*Solid Section, elset=_PickedSet2, material=Material-1
1.,
*End Instance
**  
*Instance, name=Part-2-1, part=Part-2
*Node
      1,           0.,          40.
      2,          2.5,          40.
      3,           5.,          40.
      4,          7.5,          40.
      5,          10.,          40.
      6,           0.,         42.5
      7,          2.5,         42.5
      8,           5.,         42.5
      9,          7.5,         42.5
     10,          10.,         42.5
     11,           0.,          45.
     12,          2.5,          45.
     13,           5.,          45.
     14,          7.5,          45.
     15,          10.,          45.
     16,           0.,         47.5
     17,          2.5,         47.5
     18,           5.,         47.5
     19,          7.5,         47.5
     20,          10.,         47.5
** ... 5 like lines cut
*Element, type=CPS4
 1,  1,  2,  7,  6
 2,  2,  3,  8,  7
 3,  3,  4,  9,  8
 4,  4,  5, 10,  9
 5,  6,  7, 12, 11
 6,  7,  8, 13, 12
 7,  8,  9, 14, 13
 8,  9, 10, 15, 14
 9, 11, 12, 17, 16
10, 12, 13, 18, 17
11, 13, 14, 19, 18
12, 14, 15, 20, 19
13, 16, 17, 22, 21
14, 17, 18, 23, 22
15, 18, 19, 24, 23
16, 19, 20, 25, 24
*Nset, nset=_PickedSet2, internal, generate
  1,  25,   1
*Elset, elset=_PickedSet2, internal, generate
  1,  16,   1
** Section: Section-2
*Solid Section, elset=_PickedSet2, material=Material-2
1.,
*End Instance
**  
*Nset, nset=_PickedSet9, internal, instance=Part-1-1, generate
  17,  289,   17
*Elset, elset=_PickedSet9, internal, instance=Part-1-1, generate
  16,  256,   16
*Nset, nset=_PickedSet10, internal, instance=Part-1-1, generate
   1,  289,    1
*Elset, elset=_PickedSet10, internal, instance=Part-1-1, generate
   1,  256,    1
*Elset, elset=__PickedSurf6_S1, internal, instance=Part-2-1, generate
 1,  4,  1
*Surface, type=ELEMENT, name=_PickedSurf6, internal
__PickedSurf6_S1, S1
*Elset, elset=__PickedSurf7_S3, internal, instance=Part-1-1, generate
 241,  256,    1
*Surface, type=ELEMENT, name=_PickedSurf7, internal
__PickedSurf7_S3, S3
*Elset, elset=__PickedSurf8_S3, internal, instance=Part-2-1, generate
 13,  16,   1
*Surface, type=ELEMENT, name=_PickedSurf8, internal
__PickedSurf8_S3, S3
** Constraint: Constraint-1
*Tie, name=Constraint-1, adjust=yes
_PickedSurf7, _PickedSurf6
*End Assembly
** 
** MATERIALS
** 
*Material, name=Material-1
*Elastic
 0.001, 0.3,  0.
 2000., 0.3, 0.1
20000., 0.3,  1.
*Material, name=Material-2
*Elastic
200000., 0.3
** ----------------------------------------------------------------
** 
** STEP: Step-1
** 
*Step, name=Step-1
*Static
1., 1., 1e-05, 1.
** 
** BOUNDARY CONDITIONS
** 
** Name: BC-1 Type: Displacement/Rotation
*Boundary
_PickedSet9, 1, 1
_PickedSet9, 2, 2
** 
** LOADS
** 
** Name: Load-1   Type: Pressure
*Dsload
_PickedSurf8, P, 100.
** 
** PREDEFINED FIELDS
** 
** Name: Predefined Field-1   Type: Temperature
*Temperature, input=dens.dat
** 
** OUTPUT REQUESTS
** 
*Restart, write, frequency=0
** 
** FIELD OUTPUT: F-Output-1
** 
*Output, field, variable=PRESELECT
*node output
 U, NT
** 
** HISTORY OUTPUT: H-Output-1
** 
*Output, history, variable=PRESELECT
**
*el file, pos=average, freq=99999
sinv,
ener
**
*End Step
