 Abaqus/Standard 6.9-3                  DATE 28-May-2018 TIME 21:51:58
 SUMMARY OF JOB INFORMATION:
 STEP  INC ATT SEVERE EQUIL TOTAL  TOTAL      STEP       INC OF       DOF    IF
               DISCON ITERS ITERS  TIME/    TIME/LPF    TIME/LPF    MONITOR RIKS
               ITERS               FREQ
   1     1   1     0     5     5  0.125      0.125      0.1250    
   1     2   1     0     3     3  0.250      0.250      0.1250    
   1     3   1     0     2     2  0.375      0.375      0.1250    
   1     4   1     0     2     2  0.500      0.500      0.1250    
   1     5   1     0     1     1  0.625      0.625      0.1250    
   1     6   1     0     1     1  0.750      0.750      0.1250    
   1     7   1     0     1     1  0.875      0.875      0.1250    
   1     8   1     0     1     1  1.00       1.00       0.1250    
                          
 THE ANALYSIS HAS COMPLETED SUCCESSFULLY
