 Abaqus/Standard 6.9-3                  DATE 28-May-2018 TIME 12:11:12
 SUMMARY OF JOB INFORMATION:
 STEP  INC ATT SEVERE EQUIL TOTAL  TOTAL      STEP       INC OF       DOF    IF
               DISCON ITERS ITERS  TIME/    TIME/LPF    TIME/LPF    MONITOR RIKS
               ITERS               FREQ
   1     1   1     0     7     7  0.200      0.200      0.2000    
   1     2   1     0     4     4  0.400      0.400      0.2000    
   1     3   1     0     2     2  0.600      0.600      0.2000    
   1     4   1     0     2     2  0.800      0.800      0.2000    
   1     5   1     0     1     1  1.00       1.00       0.2000    
                          
 THE ANALYSIS HAS COMPLETED SUCCESSFULLY
